
##########                                Name:             UNNAMED
##########                DOCK_Rotatable_Bonds:                   4
##########                    Molecular_Weight:             150.131
##########                       Formal_Charge:        -9.99868e-05
##########                          Grid_Score:          -30.827175
##########                     Grid_vdw_energy:          -22.421335
##########                      Grid_es_energy:           -8.405840
##########           Internal_energy_repulsive:            0.528651

@<TRIPOS>MOLECULE
UNNAMED
 20 20 1 0 0
BIOPOLYMER
GAST_HUCK


@<TRIPOS>ATOM
      1 C1         14.3399   56.6895   55.3340 C.3     1  ARA1        0.1850
      2 H1         14.3093   55.6594   55.7179 H       1  ARA1        0.0935
      3 O5         15.2925   56.7756   54.2606 O.3     1  ARA1       -0.3462
      4 C5         14.9788   55.8078   53.1942 C.3     1  ARA1        0.0792
      5 H6         14.8772   54.7983   53.6187 H       1  ARA1        0.0587
      6 H5         15.7760   55.8084   52.4372 H       1  ARA1        0.0587
      7 C4         13.6611   56.2475   52.5671 C.3     1  ARA1        0.1069
      8 H4         13.3853   55.5083   51.8012 H       1  ARA1        0.0643
      9 O4         13.7671   57.5241   51.9160 O.3     1  ARA1       -0.3869
     10 H10        13.0571   57.6221   51.2927 H       1  ARA1        0.2100
     11 C3         12.5664   56.2479   53.6458 C.3     1  ARA1        0.1137
     12 H3         12.4257   55.2187   54.0082 H       1  ARA1        0.0647
     13 O3         11.3499   56.6900   53.0549 O.3     1  ARA1       -0.3864
     14 H9         10.6460   56.6223   53.6899 H       1  ARA1        0.2100
     15 C2         12.9715   57.1184   54.8349 C.3     1  ARA1        0.1339
     16 H2         13.0389   58.1613   54.4931 H       1  ARA1        0.0671
     17 O2         11.9940   57.0577   55.8795 O.3     1  ARA1       -0.3841
     18 H8         11.1469   57.3147   55.5352 H       1  ARA1        0.2101
     19 O1         14.6538   57.5814   56.3596 O.3     1  ARA1       -0.3649
     20 H7         15.5163   57.3784   56.7027 H       1  ARA1        0.2126
@<TRIPOS>BOND
     1     1     2    1
     2     1     3    1
     3     1    15    1
     4     1    19    1
     5     3     4    1
     6     4     5    1
     7     4     6    1
     8     4     7    1
     9     7     8    1
    10     7     9    1
    11     7    11    1
    12     9    10    1
    13    11    12    1
    14    11    13    1
    15    11    15    1
    16    13    14    1
    17    15    16    1
    18    15    17    1
    19    17    18    1
    20    19    20    1
@<TRIPOS>SUBSTRUCTURE
     1 ARA1        1 TEMP              0 ****  ****    0 ROOT

