
##########                                Name:                 AAH
##########                DOCK_Rotatable_Bonds:                   0
##########                    Molecular_Weight:                   0
##########                       Formal_Charge:                   0
##########                         Amber_Score:           -4.230798
##########                Amber_complex_energy:        -4657.737211
##########               Amber_receptor_energy:         4584.941716
##########                 Amber_ligand_energy:           68.564696

@<TRIPOS>MOLECULE
AAH
 14 14 1 0 0
SMALL
No Charge or Current Charge


@<TRIPOS>ATOM
      1 C1         28.0002    7.0615    4.1721 C.ar    1  AAH         0.2023
      2 C2         27.9451    6.3522    2.9821 C.ar    1  AAH        -0.2544
      3 C3         27.0839    6.8212    5.1888 C.ar    1  AAH        -0.2550
      4 N4         29.0669    7.8505    4.4237 N.pl3   1  AAH        -0.8263
      5 C5         27.0486    5.2973    2.8706 C.ar    1  AAH         0.1917
      6 C6         26.2179    5.7441    5.0688 C.ar    1  AAH         0.1920
      7 C7         26.2035    4.9699    3.9203 C.ar    1  AAH        -0.2532
      8 F8         27.0866    4.5064    1.7958 F       1  AAH        -0.1363
      9 F9         25.5097    5.3529    6.1288 F       1  AAH        -0.1358
     10 H10        28.6583    6.5442    2.1891 H       1  AAH         0.1523
     11 H11        27.1396    7.3607    6.1269 H       1  AAH         0.1518
     12 H12        29.5829    8.2426    3.6356 H       1  AAH         0.4032
     13 H13        29.3855    7.9680    5.3781 H       1  AAH         0.4031
     14 H14        25.5780    4.0894    3.8664 H       1  AAH         0.1647
@<TRIPOS>BOND
     1     1     2   ar
     2     1     3   ar
     3     1     4    1
     4     2     5   ar
     5     2    10    1
     6     3     6   ar
     7     3    11    1
     8     4    12    1
     9     4    13    1
    10     5     7   ar
    11     5     8    1
    12     6     7   ar
    13     6     9    1
    14     7    14    1
@<TRIPOS>SUBSTRUCTURE
     1 AAH         1 TEMP              0 ****  ****    0 ROOT

